2
Lattice="10.0 3.868527619827824e-19 2.3766185050756364e-19 -2.8854756128147393e-19 10.0 -1.7317435560293856e-19 2.0187195012820667e-19 -7.991649463886478e-19 9.987851515161083" Properties=species:S:1:pos:R:3 type=molecule spin_polarized=T name=O2 MACE_energy=-9.68928094243364 pbc="T T T"
O        0.00000000       0.00000000       0.61835661
O       -0.00000000      -0.00000000      -0.61835661
2
Lattice="10.0 0.0 0.0 0.0 10.0 0.0 0.0 0.0 10.008720903069934" Properties=species:S:1:pos:R:3 type=molecule name=H2 MACE_energy=-6.52448982654919 pbc="T T T"
H        0.00000000       0.00000000       0.37365299
H       -0.00000000       0.00000000      -0.37365299
3
Lattice="10.0 -1.0595691030176225e-19 -1.3024672487381533e-20 -2.7976592612473217e-19 10.004657066400428 5.552499196175253e-18 6.455729193907984e-20 5.576107654635129e-18 10.001207437147876" Properties=species:S:1:pos:R:3 type=molecule name=H2O MACE_energy=-14.160273715222457 pbc="T T T"
O        0.00000000       0.00000000       0.12111002
H       -0.00000000       0.76634107      -0.47802141
H        0.00000000      -0.76634107      -0.47802141
4
Lattice="4.313147227790199 9.110516161843509e-17 -3.778617413136577e-17 9.122514417989922e-17 4.313147227790198 -3.7412421299032786e-17 -3.762349865940301e-17 -3.742301452675491e-17 4.313147227790196" Properties=species:S:1:pos:R:3 spacegroup="F m -3 m" unit_cell=conventional type=material name=Li cod_id=9008473 MACE_energy=-7.63161095410583 pbc="T T T"
Li      -0.00000000      -0.00000000       0.00000000
Li       0.00000000       2.15657361       2.15657361
Li       2.15657361       0.00000000       2.15657361
Li       2.15657361       2.15657361      -0.00000000
2
Lattice="4.190142273120518 4.60026040895893e-19 -1.104692625227789e-19 1.7105312688627907e-18 4.190142273120518 -8.334982025208725e-18 1.3384463851505234e-19 -5.741199181243285e-18 4.190142273120518" Properties=species:S:1:pos:R:3 spacegroup="I m -3 m" unit_cell=conventional type=material name=Na cod_id=9008545 MACE_energy=-2.6169696640133546 pbc="T T T"
Na       0.00000000       0.00000000       0.00000000
Na       2.09507114       2.09507114       2.09507114
12
Lattice="4.645349389618281 6.150118453799641e-17 -5.882796598548845e-17 6.150396399528733e-17 4.645349389618281 -7.005533644654812e-18 -5.883058148343439e-17 -6.996457164268539e-18 4.645349389618284" Properties=species:S:1:pos:R:3 spacegroup="F m -3 m" unit_cell=conventional type=material name=Li2O cod_id=1010064 MACE_energy=-56.94156871423414 pbc="T T T"
O       -0.00000000      -0.00000000      -0.00000000
O        0.00000000       2.32267469       2.32267469
O        2.32267469       0.00000000       2.32267469
O        2.32267469       2.32267469      -0.00000000
Li       1.16133735       1.16133735       1.16133735
Li       1.16133735       3.48401204       3.48401204
Li       3.48401204       1.16133735       3.48401204
Li       3.48401204       3.48401204       1.16133735
Li       3.48401204       3.48401204       3.48401204
Li       3.48401204       1.16133735       1.16133735
Li       1.16133735       3.48401204       1.16133735
Li       1.16133735       1.16133735       3.48401204
12
Lattice="5.572557933880744 -1.984588845497807e-17 -1.071277812361102e-17 -1.9841211328545568e-17 5.572557933880744 -7.173820460042765e-18 -1.0703746841267071e-17 -7.170119609930291e-18 5.572557933880744" Properties=species:S:1:pos:R:3 spacegroup="F m -3 m" unit_cell=conventional type=material name=Na2O cod_id=1010876 MACE_energy=-44.80192402786624 pbc="T T T"
O       -0.00000000      -0.00000000      -0.00000000
O       -0.00000000       2.78627897       2.78627897
O        2.78627897      -0.00000000       2.78627897
O        2.78627897       2.78627897      -0.00000000
Na       1.39313948       1.39313948       1.39313948
Na       1.39313948       4.17941845       4.17941845
Na       4.17941845       1.39313948       4.17941845
Na       4.17941845       4.17941845       1.39313948
Na       4.17941845       4.17941845       4.17941845
Na       4.17941845       1.39313948       1.39313948
Na       1.39313948       4.17941845       1.39313948
Na       1.39313948       1.39313948       4.17941845
8
Lattice="2.874974393900873 -5.547602014541232e-07 1.8220492139443598e-06 -1.437487677386865 2.4898016924882342 -3.6440984276200077e-06 5.5748336344779386e-06 -9.655895097685989e-06 8.715576040745466" Properties=species:S:1:pos:R:3 spacegroup="P 63/m m c" unit_cell=conventional type=material name=Co_heterogenite_2h cod_id=9009449 MACE_energy=-44.30406931578692 pbc="T T T"
Co      -0.00000386       0.00000669       0.00000000
Co      -0.00000107       0.00000186       4.35778802
O        0.00000548       1.65986564       0.97536522
O        1.43748863       0.82992269       5.33315506
O       -0.00000194       1.65987849       3.38241916
O        1.43748121       0.82993554       7.74020901
H        0.00000519       1.65986233       2.17889218
H        1.43749164       0.82992128       6.53668203
12
Lattice="2.882305312928822 -2.0696076020867242e-16 7.192537166817291e-17 -1.44115265646441 2.496149622459215 -5.145948010559508e-17 3.3072992524912116e-16 -8.369462842758727e-17 13.089960597992903" Properties=species:S:1:pos:R:3 spacegroup="R -3 m" unit_cell=conventional type=material name=Co_heterogenite_3r cod_id=9009884 MACE_energy=-66.45398548452086 pbc="T T T"
Co      -0.00000000      -0.00000000      -0.00000000
Co       1.44115266       0.83204987       4.36332020
Co      -0.00000000       1.66409975       8.72664040
O       -0.00000000      -0.00000000       5.33980502
O        1.44115266       0.83204987       9.70312522
O        0.00000000       1.66409975       0.97648482
O       -0.00000000      -0.00000000       7.75015558
O        1.44115266       0.83204987      12.11347577
O       -0.00000000       1.66409975       3.38683538
H       -0.00000000      -0.00000000       6.54498030
H        1.44115266       0.83204987      10.90830050
H        0.00000000       1.66409975       2.18166010
3
Lattice="2.8260504269545415 -4.320854985892348e-05 -5.7312544728244224e-05 -1.4130626331790703 2.4474098578435806 5.7312544727889406e-05 -5.1254511490665646e-05 2.959180600557308e-05 5.069286599450508" Properties=species:S:1:pos:R:3 spacegroup="P -3 m 1" unit_cell=conventional type=material name=Co_hydroxide cod_id=1010267 MACE_energy=-17.207820603250532 pbc="T T T"
Co      -0.00000000       0.00000000      -0.00000000
O       -0.00017145       1.63167675       0.94264925
O        1.41310799       0.81571949       4.12663735
4
Lattice="5.2524215157696155 -2.9466892969336154e-17 0.02711089379091106 -1.6475329796439736e-17 3.0345020507064935 2.914126865264887e-17 -1.7658012784303776 3.387700594484868e-17 2.4682359381964054" Properties=species:S:1:pos:R:3 spacegroup="C 2/m" unit_cell=conventional type=material name=CoO cod_id=1528838 MACE_energy=-23.94227746144425 pbc="T T T"
Co       0.00000000       0.00000000       0.00000000
Co       2.62621076       1.51725103       0.01355545
O       -0.88290064       1.51725103       1.23411797
O        1.74331012       0.00000000       1.24767342
6
Lattice="4.8936693147366 -6.192137869432228e-18 0.1413209296404218 -6.153040804205311e-18 2.8246040831504367 -3.805720289107244e-16 -0.49981325102678353 -5.421322949480947e-16 5.095001470770457" Properties=species:S:1:pos:R:3 spacegroup="C m" unit_cell=conventional type=material name=CoO2 cod_id=3000496 MACE_energy=-34.41312123589936 pbc="T T T"
Co       1.67198532      -0.00000000       1.15531831
Co       4.11881998       1.41230204       1.22597878
O        3.27107357      -0.00000000       2.14516248
O        0.82423891       1.41230204       2.07450202
O        0.06616205      -0.00000000       0.16530998
O        2.51299671       1.41230204       0.23597044
56
Lattice="8.161760746745145 1.4986333568363117e-16 9.106002709281003e-17 1.5093893933211815e-16 8.161760746745145 1.6059228615069828e-16 9.181001890046558e-17 1.6082563908856127e-16 8.161760746745145" Properties=species:S:1:pos:R:3 spacegroup="F d -3 m" unit_cell=conventional type=material name=Co3O4 cod_id=1538531 MACE_energy=-336.509567445872 pbc="T T T"
Co       5.10110047       5.10110047       5.10110047
Co       5.10110047       7.14154065       7.14154065
Co       3.06066028       7.14154065       1.02022009
Co       3.06066028       5.10110047       3.06066028
Co       1.02022009       3.06066028       7.14154065
Co       7.14154065       3.06066028       1.02022009
Co       7.14154065       1.02022009       3.06066028
Co       5.10110047       1.02022009       1.02022009
Co       7.14154065       7.14154065       5.10110047
Co       7.14154065       5.10110047       7.14154065
Co       1.02022009       7.14154065       3.06066028
Co       5.10110047       3.06066028       3.06066028
Co       3.06066028       1.02022009       7.14154065
Co       3.06066028       3.06066028       5.10110047
Co       1.02022009       5.10110047       1.02022009
Co       1.02022009       1.02022009       5.10110047
O        3.18075579       3.18075579       3.18075579
O        7.02144514       5.22119598       5.22119598
O        4.98100496       0.90012458       7.26163617
O        1.14031561       7.02144514       1.14031561
O        3.18075579       0.90012458       0.90012458
O        1.14031561       5.22119598       2.94056477
O        4.98100496       3.18075579       4.98100496
O        7.02144514       7.02144514       7.02144514
O        7.26163617       4.98100496       0.90012458
O        5.22119598       1.14031561       2.94056477
O        0.90012458       7.26163617       4.98100496
O        7.02144514       2.94056477       2.94056477
O        0.90012458       0.90012458       3.18075579
O        5.22119598       7.02144514       5.22119598
O        2.94056477       5.22119598       1.14031561
O        3.18075579       4.98100496       4.98100496
O        0.90012458       3.18075579       0.90012458
O        7.02144514       1.14031561       1.14031561
O        0.90012458       4.98100496       7.26163617
O        1.14031561       2.94056477       5.22119598
O        3.18075579       7.26163617       7.26163617
O        1.14031561       1.14031561       7.02144514
O        4.98100496       4.98100496       3.18075579
O        4.98100496       7.26163617       0.90012458
O        7.26163617       0.90012458       4.98100496
O        5.22119598       5.22119598       7.02144514
O        5.22119598       2.94056477       1.14031561
O        2.94056477       1.14031561       5.22119598
O        7.26163617       3.18075579       7.26163617
O        2.94056477       7.02144514       2.94056477
O        2.94056477       2.94056477       7.02144514
O        7.26163617       7.26163617       3.18075579
Co      -0.00000000      -0.00000000      -0.00000000
Co       2.04044019       2.04044019       2.04044019
Co      -0.00000000       4.08088037       4.08088037
Co       6.12132056       2.04044019       6.12132056
Co       4.08088037      -0.00000000       4.08088037
Co       2.04044019       6.12132056       6.12132056
Co       4.08088037       4.08088037      -0.00000000
Co       6.12132056       6.12132056       2.04044019
